  <routes>
    <!-- Vehicle Types -->

    <vType id="car" accel="2.6" decel="4.5" sigma="0.5" length="4.5" maxSpeed="16.67"/>
    <vType id="bus" accel="1.2" decel="3.5" sigma="0.6" length="12.0" maxSpeed="13.89"/>
    <vType id="truck" accel="1.0" decel="3.0" sigma="0.6" length="14.0" maxSpeed="13.89"/>
    <vType id="rv" accel="1.5" decel="3.5" sigma="0.6" length="6.0" maxSpeed="13.89"/>

    <!-- Barka Inner Lane -->
    <flow id="flow_Barka_pc_straight" type="car" from="20910676#0" to="20910676#1" begin="0" end="900" number="679"/>
    <flow id="flow_Barka_pc_left" type="car" from="20910676#0" to="20910676#2" begin="0" end="900" number="102"/>
    <flow id="flow_Barka_pc_uturn" type="car" from="20910676#0" to="20910676#3" begin="0" end="900" number="141"/>
    <flow id="flow_Barka_truck_straight" type="truck" from="20910676#0" to="20910676#1" begin="0" end="900" number="2"/>
    <flow id="flow_Barka_truck_uturn" type="truck" from="20910676#0" to="20910676#3" begin="0" end="900" number="5"/>
    <flow id="flow_Barka_bus_left" type="bus" from="20910676#0" to="20910676#2" begin="0" end="900" number="1"/>
    <flow id="flow_Barka_bus_uturn" type="bus" from="20910676#0" to="20910676#3" begin="0" end="900" number="15"/>

  <!-- Barka Middle Lane -->
  <flow id="flow_Barka_pc_left_mid" type="car" from="20910676#0" to="20910676#2" begin="0" end="900" number="7" departLane="1"/>
  <flow id="flow_Barka_pc_straight_mid" type="car" from="20910676#0" to="20910676#1" begin="0" end="900" number="921" departLane="1"/>
  <flow id="flow_Barka_truck_straight_mid" type="truck" from="20910676#0" to="20910676#1" begin="0" end="900" number="92" departLane="1"/>
  <flow id="flow_Barka_bus_straight_mid" type="bus" from="20910676#0" to="20910676#1" begin="0" end="900" number="76" departLane="1"/>

  <!-- Muscat Middle Lane -->
  <flow id="flow_Muscat_pc_straight_mid" type="car" from="20910676#4" to="20910676#1" begin="0" end="900" number="644" departLane="1"/>
  <flow id="flow_Muscat_pc_left_mid" type="car" from="20910676#4" to="20910676#2" begin="0" end="900" number="8" departLane="1"/>

  <flow id="flow_Muscat_truck_left_mid" type="truck" from="20910676#4" to="20910676#2" begin="0" end="900" number="3" departLane="1"/>
  <flow id="flow_Muscat_truck_uturn_mid" type="truck" from="20910676#4" to="20910676#3" begin="0" end="900" number="5" departLane="1"/>

  <flow id="flow_Muscat_bus_straight_mid" type="bus" from="20910676#4" to="20910676#1" begin="0" end="900" number="55" departLane="1"/>

  <flow id="flow_Muscat_rv_straight_mid" type="rv" from="20910676#4" to="20910676#1" begin="0" end="900" number="22" departLane="1"/>
  <flow id="flow_Muscat_rv_left_mid" type="rv" from="20910676#4" to="20910676#2" begin="0" end="900" number="5" departLane="1"/>

  <!-- Muscat Outer Lane -->
  <flow id="flow_Muscat_pc_straight_outer" type="car" from="20910676#4" to="20910676#1" begin="0" end="900" number="412" departLane="0"/>
  <flow id="flow_Muscat_pc_right_outer" type="car" from="20910676#4" to="1432212744#0" begin="0" end="900" number="15" departLane="0"/>

  <flow id="flow_Muscat_truck_straight_outer" type="truck" from="20910676#4" to="20910676#1" begin="0" end="900" number="38" departLane="0"/>

  <flow id="flow_Muscat_bus_straight_outer" type="bus" from="20910676#4" to="20910676#1" begin="0" end="900" number="18" departLane="0"/>
  <flow id="flow_Muscat_bus_right_outer" type="bus" from="20910676#4" to="1432212744#0" begin="0" end="900" number="2" departLane="0"/>

  <!-- Barka Outer Lane -->
    <flow id="flow_Barka_pc_straight_outer" type="car" from="20910676#0" to="20910676#1" begin="0" end="900" number="538" departLane="0"/>
    <flow id="flow_Barka_pc_right_outer" type="car" from="20910676#0" to="1432212744#0" begin="0" end="900" number="23" departLane="0"/>
    <flow id="flow_Barka_truck_straight_outer" type="truck" from="20910676#0" to="20910676#1" begin="0" end="900" number="92" departLane="0"/>
    <flow id="flow_Barka_bus_straight_outer" type="bus" from="20910676#0" to="20910676#1" begin="0" end="900" number="21" departLane="0"/>
    <flow id="flow_Barka_bus_right_outer" type="bus" from="20910676#0" to="1432212744#0" begin="0" end="900" number="1" departLane="0"/>

  <!-- Muscat Inner Lane -->
  <flow id="flow_Muscat_pc_straight" type="car" from="20910676#4" to="20910676#1" begin="0" end="900" number="286" departLane="2"/>
  <flow id="flow_Muscat_pc_left" type="car" from="20910676#4" to="20910676#2" begin="0" end="900" number="120" departLane="2"/>
  <flow id="flow_Muscat_pc_uturn" type="car" from="20910676#4" to="20910676#3" begin="0" end="900" number="132" departLane="2"/>

  <flow id="flow_Muscat_truck_right" type="truck" from="20910676#4" to="1432212744#0" begin="0" end="900" number="3" departLane="2"/>
  <flow id="flow_Muscat_truck_left" type="truck" from="20910676#4" to="20910676#2" begin="0" end="900" number="5" departLane="2"/>

  <flow id="flow_Muscat_bus_straight" type="bus" from="20910676#4" to="20910676#1" begin="0" end="900" number="10" departLane="2"/>
  <flow id="flow_Muscat_bus_left" type="bus" from="20910676#4" to="20910676#2" begin="0" end="900" number="20" departLane="2"/>
  <flow id="flow_Muscat_bus_uturn" type="bus" from="20910676#4" to="20910676#3" begin="0" end="900" number="27" departLane="2"/>

<!-- Maabilah Inner Lane -->
<flow id="flow_Maabilah_pc_straight" type="car" from="20910676#5" to="20910676#1" begin="0" end="900" number="16" departLane="2"/>
<flow id="flow_Maabilah_pc_right" type="car" from="20910676#5" to="1432212744#0" begin="0" end="900" number="44" departLane="2"/>

<flow id="flow_Maabilah_truck_straight" type="truck" from="20910676#5" to="20910676#1" begin="0" end="900" number="29" departLane="2"/>

<flow id="flow_Maabilah_bus_straight" type="bus" from="20910676#5" to="20910676#1" begin="0" end="900" number="1" departLane="2"/>

<!-- Palace Inner Lane -->
<flow id="flow_Palace_pc_straight" type="car" from="20910676#1" to="20910676#4" begin="0" end="900" number="5" departLane="2"/>
<flow id="flow_Palace_pc_left" type="car" from="20910676#1" to="20910676#5" begin="0" end="900" number="26" departLane="2"/>

<flow id="flow_Palace_bus_straight" type="bus" from="20910676#1" to="20910676#4" begin="0" end="900" number="1" departLane="2"/>
<flow id="flow_Palace_bus_left" type="bus" from="20910676#1" to="20910676#5" begin="0" end="900" number="2" departLane="2"/>

<!-- Palace Outer Lane -->
<flow id="flow_Palace_pc_straight_outer" type="car" from="20910676#1" to="20910676#4" begin="0" end="900" number="19" departLane="0"/>
<flow id="flow_Palace_bus_straight_outer" type="bus" from="20910676#1" to="20910676#4" begin="0" end="900" number="1" departLane="0"/>
  
  <!-- To Muscat -->
<flow id="flow_Muscat_car_0" type="car" from="20910676#0" to="20910676#1" begin="0" end="900" number="3"/>
<flow id="flow_Muscat_truck_0" type="truck" from="20910676#0" to="20910676#1" begin="0" end="900" number="164"/>
<flow id="flow_Muscat_bus_0" type="bus" from="20910676#0" to="20910676#1" begin="0" end="900" number="3"/>

<!-- To Barka -->
<flow id="flow_Barka_bus_0" type="bus" from="20910676#0" to="20910676#1" begin="0" end="900" number="23"/>
<flow id="flow_Barka_rv_0" type="rv" from="20910676#0" to="20910676#1" begin="0" end="900" number="58"/>

<!-- To Maabilah -->
<flow id="flow_Maabilah_car_0" type="car" from="20910676#0" to="20910676#0" begin="0" end="900" number="6"/>
<flow id="flow_Maabilah_bus_0" type="bus" from="20910676#0" to="20910676#0" begin="0" end="900" number="245"/>

<!-- To Bait Albarakah Palace -->
<flow id="flow_Palace_bus_0" type="bus" from="20910676#0" to="20910676#4" begin="0" end="900" number="2"/>
  <flow id="flow_Barka_car_1" type="car" from="20910676#0" to="20910676#1" begin="900" end="1800" number="30"/>
  <flow id="flow_Barka_bus_1" type="bus" from="20910676#0" to="20910676#1" begin="900" end="1800" number="5"/>
  <flow id="flow_Barka_truck_1" type="truck" from="20910676#0" to="20910676#1" begin="900" end="1800" number="3"/>
  <flow id="flow_Barka_rv_1" type="rv" from="20910676#0" to="20910676#1" begin="900" end="1800" number="1"/>
  <flow id="flow_Muscat_car_1" type="car" from="20910676#0" to="20910676#1" begin="900" end="1800" number="30"/>
  <flow id="flow_Muscat_bus_1" type="bus" from="20910676#0" to="20910676#1" begin="900" end="1800" number="5"/>
  <flow id="flow_Muscat_truck_1" type="truck" from="20910676#0" to="20910676#1" begin="900" end="1800" number="3"/>
  <flow id="flow_Muscat_rv_1" type="rv" from="20910676#0" to="20910676#1" begin="900" end="1800" number="1"/>
  <flow id="flow_Maabilah_car_1" type="car" from="20910676#0" to="20910676#0" begin="900" end="1800" number="30"/>
  <flow id="flow_Maabilah_bus_1" type="bus" from="20910676#0" to="20910676#0" begin="900" end="1800" number="5"/>
  <flow id="flow_Maabilah_truck_1" type="truck" from="20910676#0" to="20910676#0" begin="900" end="1800" number="3"/>
  <flow id="flow_Maabilah_rv_1" type="rv" from="20910676#0" to="20910676#0" begin="900" end="1800" number="1"/>
  <flow id="flow_Palace_car_1" type="car" from="20910676#0" to="20910676#0" begin="900" end="1800" number="30"/>
  <flow id="flow_Palace_bus_1" type="bus" from="20910676#0" to="20910676#0" begin="900" end="1800" number="5"/>
  <flow id="flow_Palace_truck_1" type="truck" from="20910676#0" to="20910676#0" begin="900" end="1800" number="3"/>
  <flow id="flow_Palace_rv_1" type="rv" from="20910676#0" to="20910676#0" begin="900" end="1800" number="1"/>
  <flow id="flow_Barka_car_2" type="car" from="20910676#0" to="20910676#1" begin="1800" end="2700" number="30"/>
  <flow id="flow_Barka_bus_2" type="bus" from="20910676#0" to="20910676#1" begin="1800" end="2700" number="5"/>
  <flow id="flow_Barka_truck_2" type="truck" from="20910676#0" to="20910676#1" begin="1800" end="2700" number="3"/>
  <flow id="flow_Barka_rv_2" type="rv" from="20910676#0" to="20910676#1" begin="1800" end="2700" number="1"/>
  <flow id="flow_Muscat_car_2" type="car" from="20910676#0" to="20910676#1" begin="1800" end="2700" number="30"/>
  <flow id="flow_Muscat_bus_2" type="bus" from="20910676#0" to="20910676#1" begin="1800" end="2700" number="5"/>
  <flow id="flow_Muscat_truck_2" type="truck" from="20910676#0" to="20910676#1" begin="1800" end="2700" number="3"/>
  <flow id="flow_Muscat_rv_2" type="rv" from="20910676#0" to="20910676#1" begin="1800" end="2700" number="1"/>
  <flow id="flow_Maabilah_car_2" type="car" from="20910676#0" to="20910676#0" begin="1800" end="2700" number="30"/>
  <flow id="flow_Maabilah_bus_2" type="bus" from="20910676#0" to="20910676#0" begin="1800" end="2700" number="5"/>
  <flow id="flow_Maabilah_truck_2" type="truck" from="20910676#0" to="20910676#0" begin="1800" end="2700" number="3"/>
  <flow id="flow_Maabilah_rv_2" type="rv" from="20910676#0" to="20910676#0" begin="1800" end="2700" number="1"/>
  <flow id="flow_Palace_car_2" type="car" from="20910676#0" to="20910676#0" begin="1800" end="2700" number="30"/>
  <flow id="flow_Palace_bus_2" type="bus" from="20910676#0" to="20910676#0" begin="1800" end="2700" number="5"/>
  <flow id="flow_Palace_truck_2" type="truck" from="20910676#0" to="20910676#0" begin="1800" end="2700" number="3"/>
  <flow id="flow_Palace_rv_2" type="rv" from="20910676#0" to="20910676#0" begin="1800" end="2700" number="1"/>
  <flow id="flow_Barka_car_3" type="car" from="20910676#0" to="20910676#1" begin="2700" end="3600" number="30"/>
  <flow id="flow_Barka_bus_3" type="bus" from="20910676#0" to="20910676#1" begin="2700" end="3600" number="5"/>
  <flow id="flow_Barka_truck_3" type="truck" from="20910676#0" to="20910676#1" begin="2700" end="3600" number="3"/>
  <flow id="flow_Barka_rv_3" type="rv" from="20910676#0" to="20910676#1" begin="2700" end="3600" number="1"/>
  <flow id="flow_Muscat_car_3" type="car" from="20910676#0" to="20910676#1" begin="2700" end="3600" number="30"/>
  <flow id="flow_Muscat_bus_3" type="bus" from="20910676#0" to="20910676#1" begin="2700" end="3600" number="5"/>
  <flow id="flow_Muscat_truck_3" type="truck" from="20910676#0" to="20910676#1" begin="2700" end="3600" number="3"/>
  <flow id="flow_Muscat_rv_3" type="rv" from="20910676#0" to="20910676#1" begin="2700" end="3600" number="1"/>
  <flow id="flow_Maabilah_car_3" type="car" from="20910676#0" to="20910676#0" begin="2700" end="3600" number="30"/>
  <flow id="flow_Maabilah_bus_3" type="bus" from="20910676#0" to="20910676#0" begin="2700" end="3600" number="5"/>
  <flow id="flow_Maabilah_truck_3" type="truck" from="20910676#0" to="20910676#0" begin="2700" end="3600" number="3"/>
  <flow id="flow_Maabilah_rv_3" type="rv" from="20910676#0" to="20910676#0" begin="2700" end="3600" number="1"/>
  <flow id="flow_Palace_car_3" type="car" from="20910676#0" to="20910676#0" begin="2700" end="3600" number="30"/>
  <flow id="flow_Palace_bus_3" type="bus" from="20910676#0" to="20910676#0" begin="2700" end="3600" number="5"/>
  <flow id="flow_Palace_truck_3" type="truck" from="20910676#0" to="20910676#0" begin="2700" end="3600" number="3"/>
  <flow id="flow_Palace_rv_3" type="rv" from="20910676#0" to="20910676#0" begin="2700" end="3600" number="1"/>
  <flow id="flow_Barka_car_4" type="car" from="20910676#0" to="20910676#1" begin="3600" end="4500" number="30"/>
  <flow id="flow_Barka_bus_4" type="bus" from="20910676#0" to="20910676#1" begin="3600" end="4500" number="5"/>
  <flow id="flow_Barka_truck_4" type="truck" from="20910676#0" to="20910676#1" begin="3600" end="4500" number="3"/>
  <flow id="flow_Barka_rv_4" type="rv" from="20910676#0" to="20910676#1" begin="3600" end="4500" number="1"/>
  <flow id="flow_Muscat_car_4" type="car" from="20910676#0" to="20910676#1" begin="3600" end="4500" number="30"/>
  <flow id="flow_Muscat_bus_4" type="bus" from="20910676#0" to="20910676#1" begin="3600" end="4500" number="5"/>
  <flow id="flow_Muscat_truck_4" type="truck" from="20910676#0" to="20910676#1" begin="3600" end="4500" number="3"/>
  <flow id="flow_Muscat_rv_4" type="rv" from="20910676#0" to="20910676#1" begin="3600" end="4500" number="1"/>
  <flow id="flow_Maabilah_car_4" type="car" from="20910676#0" to="20910676#0" begin="3600" end="4500" number="30"/>
  <flow id="flow_Maabilah_bus_4" type="bus" from="20910676#0" to="20910676#0" begin="3600" end="4500" number="5"/>
  <flow id="flow_Maabilah_truck_4" type="truck" from="20910676#0" to="20910676#0" begin="3600" end="4500" number="3"/>
  <flow id="flow_Maabilah_rv_4" type="rv" from="20910676#0" to="20910676#0" begin="3600" end="4500" number="1"/>
  <flow id="flow_Palace_car_4" type="car" from="20910676#0" to="20910676#0" begin="3600" end="4500" number="30"/>
  <flow id="flow_Palace_bus_4" type="bus" from="20910676#0" to="20910676#0" begin="3600" end="4500" number="5"/>
  <flow id="flow_Palace_truck_4" type="truck" from="20910676#0" to="20910676#0" begin="3600" end="4500" number="3"/>
  <flow id="flow_Palace_rv_4" type="rv" from="20910676#0" to="20910676#0" begin="3600" end="4500" number="1"/>
  <flow id="flow_Barka_car_5" type="car" from="20910676#0" to="20910676#1" begin="4500" end="5400" number="30"/>
  <flow id="flow_Barka_bus_5" type="bus" from="20910676#0" to="20910676#1" begin="4500" end="5400" number="5"/>
  <flow id="flow_Barka_truck_5" type="truck" from="20910676#0" to="20910676#1" begin="4500" end="5400" number="3"/>
  <flow id="flow_Barka_rv_5" type="rv" from="20910676#0" to="20910676#1" begin="4500" end="5400" number="1"/>
  <flow id="flow_Muscat_car_5" type="car" from="20910676#0" to="20910676#1" begin="4500" end="5400" number="30"/>
  <flow id="flow_Muscat_bus_5" type="bus" from="20910676#0" to="20910676#1" begin="4500" end="5400" number="5"/>
  <flow id="flow_Muscat_truck_5" type="truck" from="20910676#0" to="20910676#1" begin="4500" end="5400" number="3"/>
  <flow id="flow_Muscat_rv_5" type="rv" from="20910676#0" to="20910676#1" begin="4500" end="5400" number="1"/>
  <flow id="flow_Maabilah_car_5" type="car" from="20910676#0" to="20910676#0" begin="4500" end="5400" number="30"/>
  <flow id="flow_Maabilah_bus_5" type="bus" from="20910676#0" to="20910676#0" begin="4500" end="5400" number="5"/>
  <flow id="flow_Maabilah_truck_5" type="truck" from="20910676#0" to="20910676#0" begin="4500" end="5400" number="3"/>
  <flow id="flow_Maabilah_rv_5" type="rv" from="20910676#0" to="20910676#0" begin="4500" end="5400" number="1"/>
  <flow id="flow_Palace_car_5" type="car" from="20910676#0" to="20910676#0" begin="4500" end="5400" number="30"/>
  <flow id="flow_Palace_bus_5" type="bus" from="20910676#0" to="20910676#0" begin="4500" end="5400" number="5"/>
  <flow id="flow_Palace_truck_5" type="truck" from="20910676#0" to="20910676#0" begin="4500" end="5400" number="3"/>
  <flow id="flow_Palace_rv_5" type="rv" from="20910676#0" to="20910676#0" begin="4500" end="5400" number="1"/>
  <flow id="flow_Barka_car_6" type="car" from="20910676#0" to="20910676#1" begin="5400" end="6300" number="30"/>
  <flow id="flow_Barka_bus_6" type="bus" from="20910676#0" to="20910676#1" begin="5400" end="6300" number="5"/>
  <flow id="flow_Barka_truck_6" type="truck" from="20910676#0" to="20910676#1" begin="5400" end="6300" number="3"/>
  <flow id="flow_Barka_rv_6" type="rv" from="20910676#0" to="20910676#1" begin="5400" end="6300" number="1"/>
  <flow id="flow_Muscat_car_6" type="car" from="20910676#0" to="20910676#1" begin="5400" end="6300" number="30"/>
  <flow id="flow_Muscat_bus_6" type="bus" from="20910676#0" to="20910676#1" begin="5400" end="6300" number="5"/>
  <flow id="flow_Muscat_truck_6" type="truck" from="20910676#0" to="20910676#1" begin="5400" end="6300" number="3"/>
  <flow id="flow_Muscat_rv_6" type="rv" from="20910676#0" to="20910676#1" begin="5400" end="6300" number="1"/>
  <flow id="flow_Maabilah_car_6" type="car" from="20910676#0" to="20910676#0" begin="5400" end="6300" number="30"/>
  <flow id="flow_Maabilah_bus_6" type="bus" from="20910676#0" to="20910676#0" begin="5400" end="6300" number="5"/>
  <flow id="flow_Maabilah_truck_6" type="truck" from="20910676#0" to="20910676#0" begin="5400" end="6300" number="3"/>
  <flow id="flow_Maabilah_rv_6" type="rv" from="20910676#0" to="20910676#0" begin="5400" end="6300" number="1"/>
  <flow id="flow_Palace_car_6" type="car" from="20910676#0" to="20910676#0" begin="5400" end="6300" number="30"/>
  <flow id="flow_Palace_bus_6" type="bus" from="20910676#0" to="20910676#0" begin="5400" end="6300" number="5"/>
  <flow id="flow_Palace_truck_6" type="truck" from="20910676#0" to="20910676#0" begin="5400" end="6300" number="3"/>
  <flow id="flow_Palace_rv_6" type="rv" from="20910676#0" to="20910676#0" begin="5400" end="6300" number="1"/>
  <flow id="flow_Barka_car_7" type="car" from="20910676#0" to="20910676#1" begin="6300" end="7200" number="30"/>
  <flow id="flow_Barka_bus_7" type="bus" from="20910676#0" to="20910676#1" begin="6300" end="7200" number="5"/>
  <flow id="flow_Barka_truck_7" type="truck" from="20910676#0" to="20910676#1" begin="6300" end="7200" number="3"/>
  <flow id="flow_Barka_rv_7" type="rv" from="20910676#0" to="20910676#1" begin="6300" end="7200" number="1"/>
  <flow id="flow_Muscat_car_7" type="car" from="20910676#0" to="20910676#1" begin="6300" end="7200" number="30"/>
  <flow id="flow_Muscat_bus_7" type="bus" from="20910676#0" to="20910676#1" begin="6300" end="7200" number="5"/>
  <flow id="flow_Muscat_truck_7" type="truck" from="20910676#0" to="20910676#1" begin="6300" end="7200" number="3"/>
  <flow id="flow_Muscat_rv_7" type="rv" from="20910676#0" to="20910676#1" begin="6300" end="7200" number="1"/>
  <flow id="flow_Maabilah_car_7" type="car" from="20910676#0" to="20910676#0" begin="6300" end="7200" number="30"/>
  <flow id="flow_Maabilah_bus_7" type="bus" from="20910676#0" to="20910676#0" begin="6300" end="7200" number="5"/>
  <flow id="flow_Maabilah_truck_7" type="truck" from="20910676#0" to="20910676#0" begin="6300" end="7200" number="3"/>
  <flow id="flow_Maabilah_rv_7" type="rv" from="20910676#0" to="20910676#0" begin="6300" end="7200" number="1"/>
  <flow id="flow_Palace_car_7" type="car" from="20910676#0" to="20910676#0" begin="6300" end="7200" number="30"/>
  <flow id="flow_Palace_bus_7" type="bus" from="20910676#0" to="20910676#0" begin="6300" end="7200" number="5"/>
  <flow id="flow_Palace_truck_7" type="truck" from="20910676#0" to="20910676#0" begin="6300" end="7200" number="3"/>
  <flow id="flow_Palace_rv_7" type="rv" from="20910676#0" to="20910676#0" begin="6300" end="7200" number="1"/>
  <flow id="flow_Barka_car_8" type="car" from="20910676#0" to="20910676#1" begin="7200" end="8100" number="30"/>
  <flow id="flow_Barka_bus_8" type="bus" from="20910676#0" to="20910676#1" begin="7200" end="8100" number="5"/>
  <flow id="flow_Barka_truck_8" type="truck" from="20910676#0" to="20910676#1" begin="7200" end="8100" number="3"/>
  <flow id="flow_Barka_rv_8" type="rv" from="20910676#0" to="20910676#1" begin="7200" end="8100" number="1"/>
  <flow id="flow_Muscat_car_8" type="car" from="20910676#0" to="20910676#1" begin="7200" end="8100" number="30"/>
  <flow id="flow_Muscat_bus_8" type="bus" from="20910676#0" to="20910676#1" begin="7200" end="8100" number="5"/>
  <flow id="flow_Muscat_truck_8" type="truck" from="20910676#0" to="20910676#1" begin="7200" end="8100" number="3"/>
  <flow id="flow_Muscat_rv_8" type="rv" from="20910676#0" to="20910676#1" begin="7200" end="8100" number="1"/>
  <flow id="flow_Maabilah_car_8" type="car" from="20910676#0" to="20910676#0" begin="7200" end="8100" number="30"/>
  <flow id="flow_Maabilah_bus_8" type="bus" from="20910676#0" to="20910676#0" begin="7200" end="8100" number="5"/>
  <flow id="flow_Maabilah_truck_8" type="truck" from="20910676#0" to="20910676#0" begin="7200" end="8100" number="3"/>
  <flow id="flow_Maabilah_rv_8" type="rv" from="20910676#0" to="20910676#0" begin="7200" end="8100" number="1"/>
  <flow id="flow_Palace_car_8" type="car" from="20910676#0" to="20910676#0" begin="7200" end="8100" number="30"/>
  <flow id="flow_Palace_bus_8" type="bus" from="20910676#0" to="20910676#0" begin="7200" end="8100" number="5"/>
  <flow id="flow_Palace_truck_8" type="truck" from="20910676#0" to="20910676#0" begin="7200" end="8100" number="3"/>
  <flow id="flow_Palace_rv_8" type="rv" from="20910676#0" to="20910676#0" begin="7200" end="8100" number="1"/>
  <flow id="flow_Barka_car_9" type="car" from="20910676#0" to="20910676#1" begin="8100" end="9000" number="30"/>
  <flow id="flow_Barka_bus_9" type="bus" from="20910676#0" to="20910676#1" begin="8100" end="9000" number="5"/>
  <flow id="flow_Barka_truck_9" type="truck" from="20910676#0" to="20910676#1" begin="8100" end="9000" number="3"/>
  <flow id="flow_Barka_rv_9" type="rv" from="20910676#0" to="20910676#1" begin="8100" end="9000" number="1"/>
  <flow id="flow_Muscat_car_9" type="car" from="20910676#0" to="20910676#1" begin="8100" end="9000" number="30"/>
  <flow id="flow_Muscat_bus_9" type="bus" from="20910676#0" to="20910676#1" begin="8100" end="9000" number="5"/>
  <flow id="flow_Muscat_truck_9" type="truck" from="20910676#0" to="20910676#1" begin="8100" end="9000" number="3"/>
  <flow id="flow_Muscat_rv_9" type="rv" from="20910676#0" to="20910676#1" begin="8100" end="9000" number="1"/>
  <flow id="flow_Maabilah_car_9" type="car" from="20910676#0" to="20910676#0" begin="8100" end="9000" number="30"/>
  <flow id="flow_Maabilah_bus_9" type="bus" from="20910676#0" to="20910676#0" begin="8100" end="9000" number="5"/>
  <flow id="flow_Maabilah_truck_9" type="truck" from="20910676#0" to="20910676#0" begin="8100" end="9000" number="3"/>
  <flow id="flow_Maabilah_rv_9" type="rv" from="20910676#0" to="20910676#0" begin="8100" end="9000" number="1"/>
  <flow id="flow_Palace_car_9" type="car" from="20910676#0" to="20910676#0" begin="8100" end="9000" number="30"/>
  <flow id="flow_Palace_bus_9" type="bus" from="20910676#0" to="20910676#0" begin="8100" end="9000" number="5"/>
  <flow id="flow_Palace_truck_9" type="truck" from="20910676#0" to="20910676#0" begin="8100" end="9000" number="3"/>
  <flow id="flow_Palace_rv_9" type="rv" from="20910676#0" to="20910676#0" begin="8100" end="9000" number="1"/>
  <flow id="flow_Barka_car_10" type="car" from="20910676#0" to="20910676#1" begin="9000" end="9900" number="30"/>
  <flow id="flow_Barka_bus_10" type="bus" from="20910676#0" to="20910676#1" begin="9000" end="9900" number="5"/>
  <flow id="flow_Barka_truck_10" type="truck" from="20910676#0" to="20910676#1" begin="9000" end="9900" number="3"/>
  <flow id="flow_Barka_rv_10" type="rv" from="20910676#0" to="20910676#1" begin="9000" end="9900" number="1"/>
  <flow id="flow_Muscat_car_10" type="car" from="20910676#0" to="20910676#1" begin="9000" end="9900" number="30"/>
  <flow id="flow_Muscat_bus_10" type="bus" from="20910676#0" to="20910676#1" begin="9000" end="9900" number="5"/>
  <flow id="flow_Muscat_truck_10" type="truck" from="20910676#0" to="20910676#1" begin="9000" end="9900" number="3"/>
  <flow id="flow_Muscat_rv_10" type="rv" from="20910676#0" to="20910676#1" begin="9000" end="9900" number="1"/>
  <flow id="flow_Maabilah_car_10" type="car" from="20910676#0" to="20910676#0" begin="9000" end="9900" number="30"/>
  <flow id="flow_Maabilah_bus_10" type="bus" from="20910676#0" to="20910676#0" begin="9000" end="9900" number="5"/>
  <flow id="flow_Maabilah_truck_10" type="truck" from="20910676#0" to="20910676#0" begin="9000" end="9900" number="3"/>
  <flow id="flow_Maabilah_rv_10" type="rv" from="20910676#0" to="20910676#0" begin="9000" end="9900" number="1"/>
  <flow id="flow_Palace_car_10" type="car" from="20910676#0" to="20910676#0" begin="9000" end="9900" number="30"/>
  <flow id="flow_Palace_bus_10" type="bus" from="20910676#0" to="20910676#0" begin="9000" end="9900" number="5"/>
  <flow id="flow_Palace_truck_10" type="truck" from="20910676#0" to="20910676#0" begin="9000" end="9900" number="3"/>
  <flow id="flow_Palace_rv_10" type="rv" from="20910676#0" to="20910676#0" begin="9000" end="9900" number="1"/>
  <flow id="flow_Barka_car_11" type="car" from="20910676#0" to="20910676#1" begin="9900" end="10800" number="30"/>
  <flow id="flow_Barka_bus_11" type="bus" from="20910676#0" to="20910676#1" begin="9900" end="10800" number="5"/>
  <flow id="flow_Barka_truck_11" type="truck" from="20910676#0" to="20910676#1" begin="9900" end="10800" number="3"/>
  <flow id="flow_Barka_rv_11" type="rv" from="20910676#0" to="20910676#1" begin="9900" end="10800" number="1"/>
  <flow id="flow_Muscat_car_11" type="car" from="20910676#0" to="20910676#1" begin="9900" end="10800" number="30"/>
  <flow id="flow_Muscat_bus_11" type="bus" from="20910676#0" to="20910676#1" begin="9900" end="10800" number="5"/>
  <flow id="flow_Muscat_truck_11" type="truck" from="20910676#0" to="20910676#1" begin="9900" end="10800" number="3"/>
  <flow id="flow_Muscat_rv_11" type="rv" from="20910676#0" to="20910676#1" begin="9900" end="10800" number="1"/>
  <flow id="flow_Maabilah_car_11" type="car" from="20910676#0" to="20910676#0" begin="9900" end="10800" number="30"/>
  <flow id="flow_Maabilah_bus_11" type="bus" from="20910676#0" to="20910676#0" begin="9900" end="10800" number="5"/>
  <flow id="flow_Maabilah_truck_11" type="truck" from="20910676#0" to="20910676#0" begin="9900" end="10800" number="3"/>
  <flow id="flow_Maabilah_rv_11" type="rv" from="20910676#0" to="20910676#0" begin="9900" end="10800" number="1"/>
  <flow id="flow_Palace_car_11" type="car" from="20910676#0" to="20910676#0" begin="9900" end="10800" number="30"/>
  <flow id="flow_Palace_bus_11" type="bus" from="20910676#0" to="20910676#0" begin="9900" end="10800" number="5"/>
  <flow id="flow_Palace_truck_11" type="truck" from="20910676#0" to="20910676#0" begin="9900" end="10800" number="3"/>
  <flow id="flow_Palace_rv_11" type="rv" from="20910676#0" to="20910676#0" begin="9900" end="10800" number="1"/>
  <flow id="flow_Barka_car_12" type="car" from="20910676#0" to="20910676#1" begin="10800" end="11700" number="30"/>
  <flow id="flow_Barka_bus_12" type="bus" from="20910676#0" to="20910676#1" begin="10800" end="11700" number="5"/>
  <flow id="flow_Barka_truck_12" type="truck" from="20910676#0" to="20910676#1" begin="10800" end="11700" number="3"/>
  <flow id="flow_Barka_rv_12" type="rv" from="20910676#0" to="20910676#1" begin="10800" end="11700" number="1"/>
  <flow id="flow_Muscat_car_12" type="car" from="20910676#0" to="20910676#1" begin="10800" end="11700" number="30"/>
  <flow id="flow_Muscat_bus_12" type="bus" from="20910676#0" to="20910676#1" begin="10800" end="11700" number="5"/>
  <flow id="flow_Muscat_truck_12" type="truck" from="20910676#0" to="20910676#1" begin="10800" end="11700" number="3"/>
  <flow id="flow_Muscat_rv_12" type="rv" from="20910676#0" to="20910676#1" begin="10800" end="11700" number="1"/>
  <flow id="flow_Maabilah_car_12" type="car" from="20910676#0" to="20910676#0" begin="10800" end="11700" number="30"/>
  <flow id="flow_Maabilah_bus_12" type="bus" from="20910676#0" to="20910676#0" begin="10800" end="11700" number="5"/>
  <flow id="flow_Maabilah_truck_12" type="truck" from="20910676#0" to="20910676#0" begin="10800" end="11700" number="3"/>
  <flow id="flow_Maabilah_rv_12" type="rv" from="20910676#0" to="20910676#0" begin="10800" end="11700" number="1"/>
  <flow id="flow_Palace_car_12" type="car" from="20910676#0" to="20910676#0" begin="10800" end="11700" number="30"/>
  <flow id="flow_Palace_bus_12" type="bus" from="20910676#0" to="20910676#0" begin="10800" end="11700" number="5"/>
  <flow id="flow_Palace_truck_12" type="truck" from="20910676#0" to="20910676#0" begin="10800" end="11700" number="3"/>
  <flow id="flow_Palace_rv_12" type="rv" from="20910676#0" to="20910676#0" begin="10800" end="11700" number="1"/>
  <flow id="flow_Barka_car_13" type="car" from="20910676#0" to="20910676#1" begin="11700" end="12600" number="30"/>
  <flow id="flow_Barka_bus_13" type="bus" from="20910676#0" to="20910676#1" begin="11700" end="12600" number="5"/>
  <flow id="flow_Barka_truck_13" type="truck" from="20910676#0" to="20910676#1" begin="11700" end="12600" number="3"/>